sectionalized/no_load/60p/TNB_DUMA_EXP_VOLTAGES.CSV
Bus, BasekV, Node1, Magnitude1, Angle1, pu1, Node2, Magnitude2, Angle2, pu2, Node3, Magnitude3, Angle3, pu3
"PPU_DUMA_33KV", 33, 1,    19118.2,    3.1,    1.0034, 2,    19118.2, -116.9,    1.0034, 3,    19118.2,  123.1,    1.0034
"PPU_DUMA_11KV_A", 11, 1,    6366.18,  -21.0,    1.0024, 2,    6366.18, -141.0,    1.0024, 3,    6366.18,   99.0,    1.0024
"PPU_DUMA_11KV_B", 11, 1,    6327.79,  -18.4,   0.99637, 2,    6327.79, -138.4,   0.99637, 3,    6327.79,  101.6,   0.99637
"RPPLNGI2", 11, 1,    6424.29,  -17.5,    1.0116, 2,    6424.29, -137.5,    1.0116, 3,    6424.29,  102.5,    1.0116
"PDTJLNMASJID", 11, 1,    6496.94,  -16.9,     1.023, 2,    6496.94, -136.9,     1.023, 3,    6496.94,  103.1,     1.023
"BELLA", 11, 1,     6545.5,  -16.5,    1.0306, 2,     6545.5, -136.5,    1.0306, 3,     6545.5,  103.5,    1.0306
"PSTPDGN", 11, 1,    6569.82,  -16.3,    1.0345, 2,    6569.82, -136.3,    1.0345, 3,    6569.82,  103.7,    1.0345
"ATRIA_1", 11, 1,    6459.16,  -17.2,    1.0171, 2,    6459.16, -137.2,    1.0171, 3,    6459.16,  102.8,    1.0171
"HAWKER", 11, 1,    6481.62,  -16.4,    1.0206, 2,    6481.62, -136.4,    1.0206, 3,    6481.62,  103.6,    1.0206
"DUMA7", 11, 1,    6363.48,  -18.1,     1.002, 2,    6363.48, -138.1,     1.002, 3,    6363.48,  101.9,     1.002
"HAUS", 11, 1,    6434.92,  -17.8,    1.0132, 2,    6434.92, -137.8,    1.0132, 3,    6434.92,  102.2,    1.0132
"DUMA6", 11, 1,    6629.23,  -17.1,    1.0438, 2,    6629.23, -137.1,    1.0438, 3,    6629.23,  102.9,    1.0438
"DUMA13", 11, 1,    6804.76,  -16.5,    1.0715, 2,    6804.76, -136.5,    1.0715, 3,    6804.76,  103.5,    1.0715
"SSU_DUMA5_IM2", 11, 1,    6828.16,  -16.3,    1.0752, 2,    6828.16, -136.3,    1.0752, 3,    6828.16,  103.7,    1.0752
"PDTLITRAK", 11, 1,       6559,  -16.3,    1.0328, 2,       6559, -136.3,    1.0328, 3,       6559,  103.7,    1.0328
"DUMA12", 11, 1,    6652.87,  -15.5,    1.0476, 2,    6652.87, -135.5,    1.0476, 3,    6652.87,  104.5,    1.0476
"TMNGH4", 11, 1,    6741.34,  -15.2,    1.0615, 2,    6741.34, -135.2,    1.0615, 3,    6741.34,  104.8,    1.0615
"SSU_TMEGAH3_IR1", 11, 1,    6776.69,  -15.1,    1.0671, 2,    6776.69, -135.1,    1.0671, 3,    6776.69,  104.9,    1.0671
"TMNGH2", 11, 1,       6792,  -15.0,    1.0695, 2,       6792, -135.0,    1.0695, 3,       6792,  105.0,    1.0695
"SSU_UPTWRES_IM2", 11, 1,    6364.93,  -18.0,    1.0022, 2,    6364.93, -138.0,    1.0022, 3,    6364.93,  102.0,    1.0022
"MAYBANK", 11, 1,     6414.6,  -17.6,      1.01, 2,     6414.6, -137.6,      1.01, 3,     6414.6,  102.4,      1.01
"DUMA8", 11, 1,    6423.94,  -17.5,    1.0115, 2,    6423.94, -137.5,    1.0115, 3,    6423.94,  102.5,    1.0115
"DUMA9", 11, 1,    6493.23,  -16.9,    1.0224, 2,    6493.23, -136.9,    1.0224, 3,    6493.23,  103.1,    1.0224
"DUMA1", 11, 1,    6560.96,  -16.4,    1.0331, 2,    6560.96, -136.4,    1.0331, 3,    6560.96,  103.6,    1.0331
"ELITE", 11, 1,    6585.22,  -16.2,    1.0369, 2,    6585.22, -136.2,    1.0369, 3,    6585.22,  103.8,    1.0369
"PAMDRA", 11, 1,    6376.06,  -20.9,     1.004, 2,    6376.06, -140.9,     1.004, 3,    6376.06,   99.1,     1.004
"DUMA4", 11, 1,    6409.37,  -20.7,    1.0092, 2,    6409.37, -140.7,    1.0092, 3,    6409.37,   99.3,    1.0092
"PLSDRA", 11, 1,    6483.24,  -20.5,    1.0208, 2,    6483.24, -140.5,    1.0208, 3,    6483.24,   99.5,    1.0208
"PRMTE", 11, 1,    6454.28,  -20.1,    1.0163, 2,    6454.28, -140.1,    1.0163, 3,    6454.28,   99.9,    1.0163
"PRMTA", 11, 1,    6469.09,  -20.0,    1.0186, 2,    6469.09, -140.0,    1.0186, 3,    6469.09,  100.0,    1.0186
"PMONTB", 11, 1,    6480.81,  -20.0,    1.0205, 2,    6480.81, -140.0,    1.0205, 3,    6480.81,  100.0,    1.0205
"PLNGI_B", 11, 1,    6415.71,  -20.6,    1.0102, 2,    6415.71, -140.6,    1.0102, 3,    6415.71,   99.4,    1.0102
"PLNGI_D", 11, 1,    6440.51,  -20.4,    1.0141, 2,    6440.51, -140.4,    1.0141, 3,    6440.51,   99.6,    1.0141
"SPRK9", 11, 1,    6580.89,  -19.2,    1.0362, 2,    6580.89, -139.2,    1.0362, 3,    6580.89,  100.8,    1.0362
"BOMBA", 11, 1,    6592.99,  -19.1,    1.0381, 2,    6592.99, -139.1,    1.0381, 3,    6592.99,  100.9,    1.0381
"SPRK8", 11, 1,    6623.17,  -19.0,    1.0429, 2,    6623.17, -139.0,    1.0429, 3,    6623.17,  101.0,    1.0429
"SSU_DSARCNTR_IR1", 11, 1,    6391.18,  -20.8,    1.0063, 2,    6391.18, -140.8,    1.0063, 3,    6391.18,   99.2,    1.0063
"DUMA10", 11, 1,    6483.65,  -20.0,    1.0209, 2,    6483.65, -140.0,    1.0209, 3,    6483.65,  100.0,    1.0209
"BALAIPOLIS", 11, 1,    6484.88,  -20.0,    1.0211, 2,    6484.88, -140.0,    1.0211, 3,    6484.88,  100.0,    1.0211
"SSU_UPTWRES_IR1", 11, 1,    6495.55,  -20.4,    1.0228, 2,    6495.55, -140.4,    1.0228, 3,    6495.55,   99.6,    1.0228
"PPU_DUMA_VCB1", 33, 1,          0,    0.0,         0, 2,          0,    0.0,         0, 3,          0,    0.0,         0
